LTspice 24.0.12 for Windows
Circuit: * C:\College\TerpRockets\Modeling\Circuit_Simulation\LP_module.asc
Start Time: Wed Jan 29 13:16:42 2025
Number of points reduced from 1000000000 to 65535.
solver = Normal
Maximum thread count: 20
tnom = 27
temp = 27
method = modified trap
WARNING: Node N024 is floating.

Direct Newton iteration for .op point succeeded.
Total elapsed time: 1.381 seconds.

