LTspice 24.0.12 for Windows
Circuit: * C:\College\TerpRockets\Modeling\Circuit_Simulation\PA_board.asc
Start Time: Mon Jan 27 12:38:24 2025
Number of points reduced from 1000000000 to 65535.
solver = Normal
Maximum thread count: 20
tnom = 27
temp = 27
method = modified trap
.OP point found by inspection.
Total elapsed time: 0.749 seconds.

